<routes>
        <vType id="typeWE" accel="0.8" decel="4.5" sigma="0.5" length="5" minGap="2.5" maxSpeed="16.67" guiShape="passenger"/>
        <vType id="typeNS" accel="0.8" decel="4.5" sigma="0.5" length="5" minGap="2.5" maxSpeed="16.67" guiShape="passenger"/>

        <route id="right" edges="51o 1i 2o 52i" />
        <route id="left" edges="52o 2i 1o 51i" />
        <route id="up" edges="53o 3i 4o 54i" />
        <route id="down" edges="54o 4i 3o 53i" />
    <vehicle id="left_0" type="typeWE" route="left" depart="0" />
    <vehicle id="left_1" type="typeWE" route="left" depart="2" />
    <vehicle id="right_2" type="typeWE" route="right" depart="3" />
    <vehicle id="up_3" type="typeNS" route="up" depart="4" color="1,0,0"/>
    <vehicle id="left_4" type="typeWE" route="left" depart="10" />
    <vehicle id="right_5" type="typeWE" route="right" depart="11" />
    <vehicle id="up_6" type="typeNS" route="up" depart="16" color="1,0,0"/>
    <vehicle id="right_7" type="typeWE" route="right" depart="22" />
    <vehicle id="left_8" type="typeWE" route="left" depart="22" />
    <vehicle id="down_9" type="typeNS" route="down" depart="23" color="1,0,0"/>
    <vehicle id="right_10" type="typeWE" route="right" depart="25" />
    <vehicle id="right_11" type="typeWE" route="right" depart="31" />
    <vehicle id="down_12" type="typeNS" route="down" depart="31" color="1,0,0"/>
    <vehicle id="up_13" type="typeNS" route="up" depart="32" color="1,0,0"/>
    <vehicle id="right_14" type="typeWE" route="right" depart="34" />
    <vehicle id="right_15" type="typeWE" route="right" depart="40" />
    <vehicle id="right_16" type="typeWE" route="right" depart="44" />
    <vehicle id="up_17" type="typeNS" route="up" depart="51" color="1,0,0"/>
    <vehicle id="right_18" type="typeWE" route="right" depart="56" />
    <vehicle id="down_19" type="typeNS" route="down" depart="57" color="1,0,0"/>
    <vehicle id="right_20" type="typeWE" route="right" depart="63" />
    <vehicle id="right_21" type="typeWE" route="right" depart="64" />
    <vehicle id="left_22" type="typeWE" route="left" depart="67" />
    <vehicle id="down_23" type="typeNS" route="down" depart="72" color="1,0,0"/>
    <vehicle id="left_24" type="typeWE" route="left" depart="74" />
    <vehicle id="down_25" type="typeNS" route="down" depart="74" color="1,0,0"/>
    <vehicle id="right_26" type="typeWE" route="right" depart="81" />
    <vehicle id="down_27" type="typeNS" route="down" depart="85" color="1,0,0"/>
    <vehicle id="right_28" type="typeWE" route="right" depart="92" />
    <vehicle id="up_29" type="typeNS" route="up" depart="93" color="1,0,0"/>
    <vehicle id="down_30" type="typeNS" route="down" depart="98" color="1,0,0"/>
    <vehicle id="up_31" type="typeNS" route="up" depart="103" color="1,0,0"/>
    <vehicle id="up_32" type="typeNS" route="up" depart="104" color="1,0,0"/>
    <vehicle id="up_33" type="typeNS" route="up" depart="106" color="1,0,0"/>
    <vehicle id="up_34" type="typeNS" route="up" depart="108" color="1,0,0"/>
    <vehicle id="right_35" type="typeWE" route="right" depart="115" />
    <vehicle id="left_36" type="typeWE" route="left" depart="120" />
    <vehicle id="left_37" type="typeWE" route="left" depart="123" />
    <vehicle id="left_38" type="typeWE" route="left" depart="125" />
    <vehicle id="right_39" type="typeWE" route="right" depart="126" />
    <vehicle id="right_40" type="typeWE" route="right" depart="127" />
    <vehicle id="down_41" type="typeNS" route="down" depart="129" color="1,0,0"/>
    <vehicle id="right_42" type="typeWE" route="right" depart="132" />
    <vehicle id="up_43" type="typeNS" route="up" depart="135" color="1,0,0"/>
    <vehicle id="left_44" type="typeWE" route="left" depart="147" />
    <vehicle id="down_45" type="typeNS" route="down" depart="149" color="1,0,0"/>
    <vehicle id="right_46" type="typeWE" route="right" depart="150" />
    <vehicle id="right_47" type="typeWE" route="right" depart="152" />
    <vehicle id="left_48" type="typeWE" route="left" depart="159" />
    <vehicle id="up_49" type="typeNS" route="up" depart="162" color="1,0,0"/>
    <vehicle id="right_50" type="typeWE" route="right" depart="164" />
    <vehicle id="down_51" type="typeNS" route="down" depart="164" color="1,0,0"/>
    <vehicle id="up_52" type="typeNS" route="up" depart="170" color="1,0,0"/>
    <vehicle id="right_53" type="typeWE" route="right" depart="171" />
    <vehicle id="up_54" type="typeNS" route="up" depart="175" color="1,0,0"/>
    <vehicle id="up_55" type="typeNS" route="up" depart="178" color="1,0,0"/>
    <vehicle id="right_56" type="typeWE" route="right" depart="179" />
    <vehicle id="right_57" type="typeWE" route="right" depart="180" />
    <vehicle id="right_58" type="typeWE" route="right" depart="182" />
    <vehicle id="left_59" type="typeWE" route="left" depart="204" />
    <vehicle id="down_60" type="typeNS" route="down" depart="206" color="1,0,0"/>
    <vehicle id="up_61" type="typeNS" route="up" depart="212" color="1,0,0"/>
    <vehicle id="right_62" type="typeWE" route="right" depart="213" />
    <vehicle id="right_63" type="typeWE" route="right" depart="216" />
    <vehicle id="down_64" type="typeNS" route="down" depart="220" color="1,0,0"/>
    <vehicle id="right_65" type="typeWE" route="right" depart="227" />
    <vehicle id="right_66" type="typeWE" route="right" depart="239" />
    <vehicle id="down_67" type="typeNS" route="down" depart="241" color="1,0,0"/>
    <vehicle id="up_68" type="typeNS" route="up" depart="242" color="1,0,0"/>
    <vehicle id="right_69" type="typeWE" route="right" depart="245" />
    <vehicle id="up_70" type="typeNS" route="up" depart="248" color="1,0,0"/>
    <vehicle id="right_71" type="typeWE" route="right" depart="250" />
    <vehicle id="left_72" type="typeWE" route="left" depart="253" />
    <vehicle id="down_73" type="typeNS" route="down" depart="254" color="1,0,0"/>
    <vehicle id="down_74" type="typeNS" route="down" depart="256" color="1,0,0"/>
    <vehicle id="left_75" type="typeWE" route="left" depart="258" />
    <vehicle id="down_76" type="typeNS" route="down" depart="258" color="1,0,0"/>
    <vehicle id="up_77" type="typeNS" route="up" depart="259" color="1,0,0"/>
    <vehicle id="left_78" type="typeWE" route="left" depart="262" />
    <vehicle id="up_79" type="typeNS" route="up" depart="263" color="1,0,0"/>
    <vehicle id="down_80" type="typeNS" route="down" depart="265" color="1,0,0"/>
    <vehicle id="right_81" type="typeWE" route="right" depart="266" />
    <vehicle id="up_82" type="typeNS" route="up" depart="272" color="1,0,0"/>
    <vehicle id="left_83" type="typeWE" route="left" depart="281" />
    <vehicle id="left_84" type="typeWE" route="left" depart="283" />
    <vehicle id="up_85" type="typeNS" route="up" depart="284" color="1,0,0"/>
    <vehicle id="right_86" type="typeWE" route="right" depart="287" />
    <vehicle id="left_87" type="typeWE" route="left" depart="291" />
    <vehicle id="right_88" type="typeWE" route="right" depart="292" />
    <vehicle id="down_89" type="typeNS" route="down" depart="293" color="1,0,0"/>
    <vehicle id="down_90" type="typeNS" route="down" depart="295" color="1,0,0"/>
    <vehicle id="right_91" type="typeWE" route="right" depart="296" />
    <vehicle id="left_92" type="typeWE" route="left" depart="296" />
    <vehicle id="left_93" type="typeWE" route="left" depart="298" />
    <vehicle id="right_94" type="typeWE" route="right" depart="309" />
    <vehicle id="right_95" type="typeWE" route="right" depart="310" />
    <vehicle id="right_96" type="typeWE" route="right" depart="311" />
    <vehicle id="down_97" type="typeNS" route="down" depart="311" color="1,0,0"/>
    <vehicle id="right_98" type="typeWE" route="right" depart="320" />
    <vehicle id="right_99" type="typeWE" route="right" depart="329" />
    <vehicle id="down_100" type="typeNS" route="down" depart="330" color="1,0,0"/>
    <vehicle id="left_101" type="typeWE" route="left" depart="343" />
    <vehicle id="down_102" type="typeNS" route="down" depart="343" color="1,0,0"/>
    <vehicle id="up_103" type="typeNS" route="up" depart="344" color="1,0,0"/>
    <vehicle id="up_104" type="typeNS" route="up" depart="347" color="1,0,0"/>
    <vehicle id="right_105" type="typeWE" route="right" depart="348" />
    <vehicle id="left_106" type="typeWE" route="left" depart="350" />
    <vehicle id="right_107" type="typeWE" route="right" depart="352" />
    <vehicle id="up_108" type="typeNS" route="up" depart="354" color="1,0,0"/>
    <vehicle id="left_109" type="typeWE" route="left" depart="357" />
    <vehicle id="left_110" type="typeWE" route="left" depart="359" />
    <vehicle id="down_111" type="typeNS" route="down" depart="361" color="1,0,0"/>
    <vehicle id="down_112" type="typeNS" route="down" depart="362" color="1,0,0"/>
    <vehicle id="right_113" type="typeWE" route="right" depart="363" />
    <vehicle id="down_114" type="typeNS" route="down" depart="370" color="1,0,0"/>
    <vehicle id="left_115" type="typeWE" route="left" depart="372" />
    <vehicle id="right_116" type="typeWE" route="right" depart="374" />
    <vehicle id="left_117" type="typeWE" route="left" depart="376" />
    <vehicle id="down_118" type="typeNS" route="down" depart="376" color="1,0,0"/>
    <vehicle id="up_119" type="typeNS" route="up" depart="385" color="1,0,0"/>
    <vehicle id="right_120" type="typeWE" route="right" depart="389" />
    <vehicle id="down_121" type="typeNS" route="down" depart="395" color="1,0,0"/>
    <vehicle id="right_122" type="typeWE" route="right" depart="402" />
    <vehicle id="left_123" type="typeWE" route="left" depart="402" />
    <vehicle id="right_124" type="typeWE" route="right" depart="406" />
    <vehicle id="left_125" type="typeWE" route="left" depart="414" />
    <vehicle id="up_126" type="typeNS" route="up" depart="415" color="1,0,0"/>
    <vehicle id="up_127" type="typeNS" route="up" depart="419" color="1,0,0"/>
    <vehicle id="up_128" type="typeNS" route="up" depart="423" color="1,0,0"/>
    <vehicle id="left_129" type="typeWE" route="left" depart="430" />
    <vehicle id="up_130" type="typeNS" route="up" depart="433" color="1,0,0"/>
    <vehicle id="down_131" type="typeNS" route="down" depart="434" color="1,0,0"/>
    <vehicle id="up_132" type="typeNS" route="up" depart="436" color="1,0,0"/>
    <vehicle id="down_133" type="typeNS" route="down" depart="450" color="1,0,0"/>
    <vehicle id="up_134" type="typeNS" route="up" depart="451" color="1,0,0"/>
    <vehicle id="right_135" type="typeWE" route="right" depart="459" />
    <vehicle id="down_136" type="typeNS" route="down" depart="468" color="1,0,0"/>
    <vehicle id="up_137" type="typeNS" route="up" depart="475" color="1,0,0"/>
    <vehicle id="down_138" type="typeNS" route="down" depart="476" color="1,0,0"/>
    <vehicle id="right_139" type="typeWE" route="right" depart="477" />
    <vehicle id="right_140" type="typeWE" route="right" depart="481" />
    <vehicle id="right_141" type="typeWE" route="right" depart="483" />
    <vehicle id="down_142" type="typeNS" route="down" depart="483" color="1,0,0"/>
    <vehicle id="up_143" type="typeNS" route="up" depart="484" color="1,0,0"/>
    <vehicle id="left_144" type="typeWE" route="left" depart="490" />
    <vehicle id="down_145" type="typeNS" route="down" depart="490" color="1,0,0"/>
    <vehicle id="down_146" type="typeNS" route="down" depart="494" color="1,0,0"/>
    <vehicle id="left_147" type="typeWE" route="left" depart="495" />
    <vehicle id="right_148" type="typeWE" route="right" depart="496" />
    <vehicle id="down_149" type="typeNS" route="down" depart="497" color="1,0,0"/>
    <vehicle id="right_150" type="typeWE" route="right" depart="501" />
    <vehicle id="down_151" type="typeNS" route="down" depart="512" color="1,0,0"/>
    <vehicle id="right_152" type="typeWE" route="right" depart="517" />
    <vehicle id="down_153" type="typeNS" route="down" depart="525" color="1,0,0"/>
    <vehicle id="up_154" type="typeNS" route="up" depart="525" color="1,0,0"/>
    <vehicle id="right_155" type="typeWE" route="right" depart="528" />
    <vehicle id="right_156" type="typeWE" route="right" depart="530" />
    <vehicle id="down_157" type="typeNS" route="down" depart="530" color="1,0,0"/>
    <vehicle id="down_158" type="typeNS" route="down" depart="531" color="1,0,0"/>
    <vehicle id="right_159" type="typeWE" route="right" depart="533" />
    <vehicle id="right_160" type="typeWE" route="right" depart="538" />
    <vehicle id="left_161" type="typeWE" route="left" depart="538" />
    <vehicle id="right_162" type="typeWE" route="right" depart="540" />
    <vehicle id="down_163" type="typeNS" route="down" depart="540" color="1,0,0"/>
    <vehicle id="up_164" type="typeNS" route="up" depart="541" color="1,0,0"/>
    <vehicle id="right_165" type="typeWE" route="right" depart="542" />
    <vehicle id="right_166" type="typeWE" route="right" depart="543" />
    <vehicle id="right_167" type="typeWE" route="right" depart="545" />
    <vehicle id="left_168" type="typeWE" route="left" depart="550" />
    <vehicle id="down_169" type="typeNS" route="down" depart="553" color="1,0,0"/>
    <vehicle id="left_170" type="typeWE" route="left" depart="555" />
    <vehicle id="down_171" type="typeNS" route="down" depart="557" color="1,0,0"/>
    <vehicle id="right_172" type="typeWE" route="right" depart="558" />
    <vehicle id="right_173" type="typeWE" route="right" depart="562" />
    <vehicle id="right_174" type="typeWE" route="right" depart="563" />
    <vehicle id="up_175" type="typeNS" route="up" depart="580" color="1,0,0"/>
    <vehicle id="down_176" type="typeNS" route="down" depart="582" color="1,0,0"/>
    <vehicle id="down_177" type="typeNS" route="down" depart="585" color="1,0,0"/>
    <vehicle id="up_178" type="typeNS" route="up" depart="593" color="1,0,0"/>
    <vehicle id="right_179" type="typeWE" route="right" depart="596" />
    <vehicle id="right_180" type="typeWE" route="right" depart="601" />
    <vehicle id="right_181" type="typeWE" route="right" depart="606" />
    <vehicle id="down_182" type="typeNS" route="down" depart="606" color="1,0,0"/>
    <vehicle id="right_183" type="typeWE" route="right" depart="609" />
    <vehicle id="left_184" type="typeWE" route="left" depart="609" />
    <vehicle id="left_185" type="typeWE" route="left" depart="613" />
    <vehicle id="down_186" type="typeNS" route="down" depart="619" color="1,0,0"/>
    <vehicle id="right_187" type="typeWE" route="right" depart="629" />
    <vehicle id="up_188" type="typeNS" route="up" depart="630" color="1,0,0"/>
    <vehicle id="right_189" type="typeWE" route="right" depart="634" />
    <vehicle id="up_190" type="typeNS" route="up" depart="635" color="1,0,0"/>
    <vehicle id="up_191" type="typeNS" route="up" depart="640" color="1,0,0"/>
    <vehicle id="right_192" type="typeWE" route="right" depart="642" />
    <vehicle id="down_193" type="typeNS" route="down" depart="643" color="1,0,0"/>
    <vehicle id="up_194" type="typeNS" route="up" depart="646" color="1,0,0"/>
    <vehicle id="right_195" type="typeWE" route="right" depart="649" />
    <vehicle id="down_196" type="typeNS" route="down" depart="654" color="1,0,0"/>
    <vehicle id="left_197" type="typeWE" route="left" depart="659" />
    <vehicle id="down_198" type="typeNS" route="down" depart="659" color="1,0,0"/>
    <vehicle id="right_199" type="typeWE" route="right" depart="660" />
    <vehicle id="right_200" type="typeWE" route="right" depart="662" />
    <vehicle id="up_201" type="typeNS" route="up" depart="671" color="1,0,0"/>
    <vehicle id="down_202" type="typeNS" route="down" depart="672" color="1,0,0"/>
    <vehicle id="left_203" type="typeWE" route="left" depart="676" />
    <vehicle id="up_204" type="typeNS" route="up" depart="683" color="1,0,0"/>
    <vehicle id="right_205" type="typeWE" route="right" depart="687" />
    <vehicle id="up_206" type="typeNS" route="up" depart="688" color="1,0,0"/>
    <vehicle id="up_207" type="typeNS" route="up" depart="690" color="1,0,0"/>
    <vehicle id="up_208" type="typeNS" route="up" depart="701" color="1,0,0"/>
    <vehicle id="left_209" type="typeWE" route="left" depart="704" />
    <vehicle id="left_210" type="typeWE" route="left" depart="706" />
    <vehicle id="right_211" type="typeWE" route="right" depart="709" />
    <vehicle id="right_212" type="typeWE" route="right" depart="711" />
    <vehicle id="down_213" type="typeNS" route="down" depart="712" color="1,0,0"/>
    <vehicle id="left_214" type="typeWE" route="left" depart="714" />
    <vehicle id="up_215" type="typeNS" route="up" depart="715" color="1,0,0"/>
    <vehicle id="right_216" type="typeWE" route="right" depart="724" />
    <vehicle id="left_217" type="typeWE" route="left" depart="727" />
    <vehicle id="right_218" type="typeWE" route="right" depart="730" />
    <vehicle id="right_219" type="typeWE" route="right" depart="731" />
    <vehicle id="right_220" type="typeWE" route="right" depart="733" />
    <vehicle id="up_221" type="typeNS" route="up" depart="741" color="1,0,0"/>
    <vehicle id="right_222" type="typeWE" route="right" depart="745" />
    <vehicle id="up_223" type="typeNS" route="up" depart="746" color="1,0,0"/>
    <vehicle id="down_224" type="typeNS" route="down" depart="747" color="1,0,0"/>
    <vehicle id="right_225" type="typeWE" route="right" depart="751" />
    <vehicle id="up_226" type="typeNS" route="up" depart="754" color="1,0,0"/>
    <vehicle id="left_227" type="typeWE" route="left" depart="758" />
    <vehicle id="up_228" type="typeNS" route="up" depart="760" color="1,0,0"/>
    <vehicle id="down_229" type="typeNS" route="down" depart="761" color="1,0,0"/>
    <vehicle id="right_230" type="typeWE" route="right" depart="763" />
    <vehicle id="down_231" type="typeNS" route="down" depart="765" color="1,0,0"/>
    <vehicle id="up_232" type="typeNS" route="up" depart="769" color="1,0,0"/>
    <vehicle id="up_233" type="typeNS" route="up" depart="775" color="1,0,0"/>
    <vehicle id="left_234" type="typeWE" route="left" depart="782" />
    <vehicle id="down_235" type="typeNS" route="down" depart="783" color="1,0,0"/>
    <vehicle id="left_236" type="typeWE" route="left" depart="785" />
    <vehicle id="down_237" type="typeNS" route="down" depart="792" color="1,0,0"/>
    <vehicle id="up_238" type="typeNS" route="up" depart="795" color="1,0,0"/>
    <vehicle id="right_239" type="typeWE" route="right" depart="801" />
    <vehicle id="up_240" type="typeNS" route="up" depart="801" color="1,0,0"/>
    <vehicle id="up_241" type="typeNS" route="up" depart="802" color="1,0,0"/>
    <vehicle id="down_242" type="typeNS" route="down" depart="808" color="1,0,0"/>
    <vehicle id="right_243" type="typeWE" route="right" depart="814" />
    <vehicle id="right_244" type="typeWE" route="right" depart="823" />
    <vehicle id="down_245" type="typeNS" route="down" depart="824" color="1,0,0"/>
    <vehicle id="left_246" type="typeWE" route="left" depart="828" />
    <vehicle id="right_247" type="typeWE" route="right" depart="830" />
    <vehicle id="down_248" type="typeNS" route="down" depart="831" color="1,0,0"/>
    <vehicle id="left_249" type="typeWE" route="left" depart="832" />
    <vehicle id="left_250" type="typeWE" route="left" depart="841" />
    <vehicle id="left_251" type="typeWE" route="left" depart="842" />
    <vehicle id="left_252" type="typeWE" route="left" depart="843" />
    <vehicle id="left_253" type="typeWE" route="left" depart="850" />
    <vehicle id="down_254" type="typeNS" route="down" depart="851" color="1,0,0"/>
    <vehicle id="right_255" type="typeWE" route="right" depart="853" />
    <vehicle id="up_256" type="typeNS" route="up" depart="855" color="1,0,0"/>
    <vehicle id="right_257" type="typeWE" route="right" depart="857" />
    <vehicle id="down_258" type="typeNS" route="down" depart="857" color="1,0,0"/>
    <vehicle id="up_259" type="typeNS" route="up" depart="862" color="1,0,0"/>
    <vehicle id="left_260" type="typeWE" route="left" depart="865" />
    <vehicle id="left_261" type="typeWE" route="left" depart="867" />
    <vehicle id="up_262" type="typeNS" route="up" depart="872" color="1,0,0"/>
    <vehicle id="left_263" type="typeWE" route="left" depart="879" />
    <vehicle id="up_264" type="typeNS" route="up" depart="881" color="1,0,0"/>
    <vehicle id="right_265" type="typeWE" route="right" depart="886" />
    <vehicle id="left_266" type="typeWE" route="left" depart="892" />
    <vehicle id="right_267" type="typeWE" route="right" depart="906" />
    <vehicle id="right_268" type="typeWE" route="right" depart="909" />
    <vehicle id="up_269" type="typeNS" route="up" depart="913" color="1,0,0"/>
    <vehicle id="down_270" type="typeNS" route="down" depart="921" color="1,0,0"/>
    <vehicle id="right_271" type="typeWE" route="right" depart="928" />
    <vehicle id="up_272" type="typeNS" route="up" depart="932" color="1,0,0"/>
    <vehicle id="up_273" type="typeNS" route="up" depart="934" color="1,0,0"/>
    <vehicle id="right_274" type="typeWE" route="right" depart="935" />
    <vehicle id="right_275" type="typeWE" route="right" depart="939" />
    <vehicle id="down_276" type="typeNS" route="down" depart="941" color="1,0,0"/>
    <vehicle id="down_277" type="typeNS" route="down" depart="943" color="1,0,0"/>
    <vehicle id="left_278" type="typeWE" route="left" depart="950" />
    <vehicle id="right_279" type="typeWE" route="right" depart="961" />
    <vehicle id="down_280" type="typeNS" route="down" depart="966" color="1,0,0"/>
    <vehicle id="up_281" type="typeNS" route="up" depart="966" color="1,0,0"/>
    <vehicle id="left_282" type="typeWE" route="left" depart="967" />
    <vehicle id="right_283" type="typeWE" route="right" depart="976" />
    <vehicle id="down_284" type="typeNS" route="down" depart="976" color="1,0,0"/>
    <vehicle id="right_285" type="typeWE" route="right" depart="978" />
    <vehicle id="down_286" type="typeNS" route="down" depart="984" color="1,0,0"/>
    <vehicle id="left_287" type="typeWE" route="left" depart="988" />
    <vehicle id="down_288" type="typeNS" route="down" depart="988" color="1,0,0"/>
    <vehicle id="down_289" type="typeNS" route="down" depart="989" color="1,0,0"/>
    <vehicle id="right_290" type="typeWE" route="right" depart="990" />
    <vehicle id="down_291" type="typeNS" route="down" depart="991" color="1,0,0"/>
    <vehicle id="left_292" type="typeWE" route="left" depart="999" />
    <vehicle id="down_293" type="typeNS" route="down" depart="1002" color="1,0,0"/>
    <vehicle id="right_294" type="typeWE" route="right" depart="1005" />
    <vehicle id="left_295" type="typeWE" route="left" depart="1008" />
    <vehicle id="up_296" type="typeNS" route="up" depart="1017" color="1,0,0"/>
    <vehicle id="right_297" type="typeWE" route="right" depart="1018" />
    <vehicle id="right_298" type="typeWE" route="right" depart="1019" />
    <vehicle id="down_299" type="typeNS" route="down" depart="1019" color="1,0,0"/>
    <vehicle id="up_300" type="typeNS" route="up" depart="1019" color="1,0,0"/>
    <vehicle id="down_301" type="typeNS" route="down" depart="1023" color="1,0,0"/>
    <vehicle id="up_302" type="typeNS" route="up" depart="1024" color="1,0,0"/>
    <vehicle id="left_303" type="typeWE" route="left" depart="1025" />
    <vehicle id="down_304" type="typeNS" route="down" depart="1027" color="1,0,0"/>
    <vehicle id="down_305" type="typeNS" route="down" depart="1035" color="1,0,0"/>
    <vehicle id="right_306" type="typeWE" route="right" depart="1036" />
    <vehicle id="right_307" type="typeWE" route="right" depart="1038" />
    <vehicle id="down_308" type="typeNS" route="down" depart="1039" color="1,0,0"/>
    <vehicle id="up_309" type="typeNS" route="up" depart="1045" color="1,0,0"/>
    <vehicle id="right_310" type="typeWE" route="right" depart="1049" />
    <vehicle id="right_311" type="typeWE" route="right" depart="1052" />
    <vehicle id="down_312" type="typeNS" route="down" depart="1062" color="1,0,0"/>
    <vehicle id="right_313" type="typeWE" route="right" depart="1065" />
    <vehicle id="right_314" type="typeWE" route="right" depart="1071" />
    <vehicle id="up_315" type="typeNS" route="up" depart="1074" color="1,0,0"/>
    <vehicle id="right_316" type="typeWE" route="right" depart="1076" />
    <vehicle id="up_317" type="typeNS" route="up" depart="1076" color="1,0,0"/>
    <vehicle id="down_318" type="typeNS" route="down" depart="1077" color="1,0,0"/>
    <vehicle id="right_319" type="typeWE" route="right" depart="1081" />
    <vehicle id="down_320" type="typeNS" route="down" depart="1087" color="1,0,0"/>
    <vehicle id="up_321" type="typeNS" route="up" depart="1088" color="1,0,0"/>
    <vehicle id="up_322" type="typeNS" route="up" depart="1089" color="1,0,0"/>
    <vehicle id="up_323" type="typeNS" route="up" depart="1090" color="1,0,0"/>
    <vehicle id="up_324" type="typeNS" route="up" depart="1097" color="1,0,0"/>
    <vehicle id="right_325" type="typeWE" route="right" depart="1098" />
    <vehicle id="up_326" type="typeNS" route="up" depart="1102" color="1,0,0"/>
    <vehicle id="left_327" type="typeWE" route="left" depart="1106" />
    <vehicle id="up_328" type="typeNS" route="up" depart="1108" color="1,0,0"/>
    <vehicle id="up_329" type="typeNS" route="up" depart="1112" color="1,0,0"/>
    <vehicle id="right_330" type="typeWE" route="right" depart="1113" />
    <vehicle id="right_331" type="typeWE" route="right" depart="1116" />
    <vehicle id="right_332" type="typeWE" route="right" depart="1123" />
    <vehicle id="left_333" type="typeWE" route="left" depart="1124" />
    <vehicle id="left_334" type="typeWE" route="left" depart="1125" />
    <vehicle id="right_335" type="typeWE" route="right" depart="1133" />
    <vehicle id="up_336" type="typeNS" route="up" depart="1134" color="1,0,0"/>
    <vehicle id="up_337" type="typeNS" route="up" depart="1136" color="1,0,0"/>
    <vehicle id="right_338" type="typeWE" route="right" depart="1137" />
    <vehicle id="right_339" type="typeWE" route="right" depart="1138" />
    <vehicle id="left_340" type="typeWE" route="left" depart="1150" />
    <vehicle id="left_341" type="typeWE" route="left" depart="1152" />
    <vehicle id="right_342" type="typeWE" route="right" depart="1154" />
    <vehicle id="up_343" type="typeNS" route="up" depart="1157" color="1,0,0"/>
    <vehicle id="right_344" type="typeWE" route="right" depart="1158" />
    <vehicle id="down_345" type="typeNS" route="down" depart="1160" color="1,0,0"/>
    <vehicle id="down_346" type="typeNS" route="down" depart="1161" color="1,0,0"/>
    <vehicle id="up_347" type="typeNS" route="up" depart="1162" color="1,0,0"/>
    <vehicle id="up_348" type="typeNS" route="up" depart="1165" color="1,0,0"/>
    <vehicle id="up_349" type="typeNS" route="up" depart="1171" color="1,0,0"/>
    <vehicle id="down_350" type="typeNS" route="down" depart="1173" color="1,0,0"/>
    <vehicle id="down_351" type="typeNS" route="down" depart="1176" color="1,0,0"/>
    <vehicle id="down_352" type="typeNS" route="down" depart="1177" color="1,0,0"/>
    <vehicle id="right_353" type="typeWE" route="right" depart="1180" />
    <vehicle id="up_354" type="typeNS" route="up" depart="1180" color="1,0,0"/>
    <vehicle id="right_355" type="typeWE" route="right" depart="1182" />
    <vehicle id="down_356" type="typeNS" route="down" depart="1182" color="1,0,0"/>
    <vehicle id="right_357" type="typeWE" route="right" depart="1184" />
    <vehicle id="down_358" type="typeNS" route="down" depart="1187" color="1,0,0"/>
    <vehicle id="up_359" type="typeNS" route="up" depart="1191" color="1,0,0"/>
    <vehicle id="right_360" type="typeWE" route="right" depart="1209" />
    <vehicle id="down_361" type="typeNS" route="down" depart="1209" color="1,0,0"/>
    <vehicle id="right_362" type="typeWE" route="right" depart="1211" />
    <vehicle id="left_363" type="typeWE" route="left" depart="1213" />
    <vehicle id="down_364" type="typeNS" route="down" depart="1216" color="1,0,0"/>
    <vehicle id="down_365" type="typeNS" route="down" depart="1218" color="1,0,0"/>
    <vehicle id="down_366" type="typeNS" route="down" depart="1220" color="1,0,0"/>
    <vehicle id="left_367" type="typeWE" route="left" depart="1234" />
    <vehicle id="up_368" type="typeNS" route="up" depart="1235" color="1,0,0"/>
    <vehicle id="down_369" type="typeNS" route="down" depart="1237" color="1,0,0"/>
    <vehicle id="left_370" type="typeWE" route="left" depart="1238" />
    <vehicle id="up_371" type="typeNS" route="up" depart="1239" color="1,0,0"/>
    <vehicle id="up_372" type="typeNS" route="up" depart="1243" color="1,0,0"/>
    <vehicle id="left_373" type="typeWE" route="left" depart="1252" />
    <vehicle id="down_374" type="typeNS" route="down" depart="1252" color="1,0,0"/>
    <vehicle id="right_375" type="typeWE" route="right" depart="1255" />
    <vehicle id="up_376" type="typeNS" route="up" depart="1256" color="1,0,0"/>
    <vehicle id="right_377" type="typeWE" route="right" depart="1258" />
    <vehicle id="right_378" type="typeWE" route="right" depart="1265" />
    <vehicle id="up_379" type="typeNS" route="up" depart="1267" color="1,0,0"/>
    <vehicle id="right_380" type="typeWE" route="right" depart="1271" />
    <vehicle id="down_381" type="typeNS" route="down" depart="1275" color="1,0,0"/>
    <vehicle id="right_382" type="typeWE" route="right" depart="1277" />
    <vehicle id="up_383" type="typeNS" route="up" depart="1280" color="1,0,0"/>
    <vehicle id="right_384" type="typeWE" route="right" depart="1294" />
    <vehicle id="down_385" type="typeNS" route="down" depart="1301" color="1,0,0"/>
    <vehicle id="right_386" type="typeWE" route="right" depart="1304" />
    <vehicle id="right_387" type="typeWE" route="right" depart="1307" />
    <vehicle id="right_388" type="typeWE" route="right" depart="1311" />