<routes>
        <vType id="typeWE" accel="0.8" decel="4.5" sigma="0.5" length="5" minGap="2.5" maxSpeed="16.67" guiShape="passenger"/>
        <vType id="typeNS" accel="0.8" decel="4.5" sigma="0.5" length="5" minGap="2.5" maxSpeed="16.67" guiShape="passenger"/>

        <route id="right" edges="51o 1i 2o 52i" />
        <route id="left" edges="52o 2i 1o 51i" />
        <route id="up" edges="53o 3i 4o 54i" />
        <route id="down" edges="54o 4i 3o 53i" />
    <vehicle id="left_0" type="typeWE" route="left" depart="0" />
    <vehicle id="down_1" type="typeNS" route="down" depart="0" color="1,0,0"/>
    <vehicle id="right_2" type="typeWE" route="right" depart="2" />
    <vehicle id="left_3" type="typeWE" route="left" depart="2" />
    <vehicle id="up_4" type="typeNS" route="up" depart="2" color="1,0,0"/>
    <vehicle id="left_5" type="typeWE" route="left" depart="3" />
    <vehicle id="left_6" type="typeWE" route="left" depart="4" />
    <vehicle id="up_7" type="typeNS" route="up" depart="4" color="1,0,0"/>
    <vehicle id="up_8" type="typeNS" route="up" depart="5" color="1,0,0"/>
    <vehicle id="right_9" type="typeWE" route="right" depart="7" />
    <vehicle id="right_10" type="typeWE" route="right" depart="8" />
    <vehicle id="right_11" type="typeWE" route="right" depart="9" />
    <vehicle id="down_12" type="typeNS" route="down" depart="9" color="1,0,0"/>
    <vehicle id="right_13" type="typeWE" route="right" depart="10" />
    <vehicle id="left_14" type="typeWE" route="left" depart="10" />
    <vehicle id="up_15" type="typeNS" route="up" depart="10" color="1,0,0"/>
    <vehicle id="down_16" type="typeNS" route="down" depart="13" color="1,0,0"/>
    <vehicle id="right_17" type="typeWE" route="right" depart="15" />
    <vehicle id="right_18" type="typeWE" route="right" depart="16" />
    <vehicle id="right_19" type="typeWE" route="right" depart="17" />
    <vehicle id="down_20" type="typeNS" route="down" depart="17" color="1,0,0"/>
    <vehicle id="up_21" type="typeNS" route="up" depart="18" color="1,0,0"/>
    <vehicle id="right_22" type="typeWE" route="right" depart="20" />
    <vehicle id="right_23" type="typeWE" route="right" depart="21" />
    <vehicle id="left_24" type="typeWE" route="left" depart="21" />
    <vehicle id="down_25" type="typeNS" route="down" depart="21" color="1,0,0"/>
    <vehicle id="right_26" type="typeWE" route="right" depart="22" />
    <vehicle id="right_27" type="typeWE" route="right" depart="23" />
    <vehicle id="down_28" type="typeNS" route="down" depart="23" color="1,0,0"/>
    <vehicle id="down_29" type="typeNS" route="down" depart="24" color="1,0,0"/>
    <vehicle id="right_30" type="typeWE" route="right" depart="25" />
    <vehicle id="down_31" type="typeNS" route="down" depart="25" color="1,0,0"/>
    <vehicle id="right_32" type="typeWE" route="right" depart="26" />
    <vehicle id="down_33" type="typeNS" route="down" depart="26" color="1,0,0"/>
    <vehicle id="down_34" type="typeNS" route="down" depart="28" color="1,0,0"/>
    <vehicle id="left_35" type="typeWE" route="left" depart="29" />
    <vehicle id="down_36" type="typeNS" route="down" depart="29" color="1,0,0"/>
    <vehicle id="right_37" type="typeWE" route="right" depart="31" />
    <vehicle id="right_38" type="typeWE" route="right" depart="32" />
    <vehicle id="left_39" type="typeWE" route="left" depart="32" />
    <vehicle id="right_40" type="typeWE" route="right" depart="34" />
    <vehicle id="right_41" type="typeWE" route="right" depart="35" />
    <vehicle id="up_42" type="typeNS" route="up" depart="35" color="1,0,0"/>
    <vehicle id="right_43" type="typeWE" route="right" depart="36" />
    <vehicle id="right_44" type="typeWE" route="right" depart="39" />
    <vehicle id="left_45" type="typeWE" route="left" depart="40" />
    <vehicle id="right_46" type="typeWE" route="right" depart="43" />
    <vehicle id="down_47" type="typeNS" route="down" depart="43" color="1,0,0"/>
    <vehicle id="up_48" type="typeNS" route="up" depart="43" color="1,0,0"/>
    <vehicle id="right_49" type="typeWE" route="right" depart="44" />
    <vehicle id="right_50" type="typeWE" route="right" depart="45" />
    <vehicle id="down_51" type="typeNS" route="down" depart="45" color="1,0,0"/>
    <vehicle id="down_52" type="typeNS" route="down" depart="46" color="1,0,0"/>
    <vehicle id="right_53" type="typeWE" route="right" depart="47" />
    <vehicle id="left_54" type="typeWE" route="left" depart="47" />
    <vehicle id="right_55" type="typeWE" route="right" depart="49" />
    <vehicle id="down_56" type="typeNS" route="down" depart="49" color="1,0,0"/>
    <vehicle id="right_57" type="typeWE" route="right" depart="50" />
    <vehicle id="right_58" type="typeWE" route="right" depart="51" />
    <vehicle id="down_59" type="typeNS" route="down" depart="51" color="1,0,0"/>
    <vehicle id="right_60" type="typeWE" route="right" depart="53" />
    <vehicle id="up_61" type="typeNS" route="up" depart="53" color="1,0,0"/>
    <vehicle id="right_62" type="typeWE" route="right" depart="54" />
    <vehicle id="down_63" type="typeNS" route="down" depart="54" color="1,0,0"/>
    <vehicle id="right_64" type="typeWE" route="right" depart="55" />
    <vehicle id="down_65" type="typeNS" route="down" depart="55" color="1,0,0"/>
    <vehicle id="right_66" type="typeWE" route="right" depart="57" />
    <vehicle id="up_67" type="typeNS" route="up" depart="57" color="1,0,0"/>
    <vehicle id="right_68" type="typeWE" route="right" depart="58" />
    <vehicle id="down_69" type="typeNS" route="down" depart="58" color="1,0,0"/>
    <vehicle id="right_70" type="typeWE" route="right" depart="59" />
    <vehicle id="left_71" type="typeWE" route="left" depart="59" />
    <vehicle id="left_72" type="typeWE" route="left" depart="61" />
    <vehicle id="down_73" type="typeNS" route="down" depart="61" color="1,0,0"/>
    <vehicle id="down_74" type="typeNS" route="down" depart="62" color="1,0,0"/>
    <vehicle id="up_75" type="typeNS" route="up" depart="62" color="1,0,0"/>
    <vehicle id="left_76" type="typeWE" route="left" depart="63" />
    <vehicle id="left_77" type="typeWE" route="left" depart="64" />
    <vehicle id="right_78" type="typeWE" route="right" depart="65" />
    <vehicle id="right_79" type="typeWE" route="right" depart="66" />
    <vehicle id="right_80" type="typeWE" route="right" depart="67" />
    <vehicle id="left_81" type="typeWE" route="left" depart="67" />
    <vehicle id="left_82" type="typeWE" route="left" depart="68" />
    <vehicle id="down_83" type="typeNS" route="down" depart="68" color="1,0,0"/>
    <vehicle id="right_84" type="typeWE" route="right" depart="69" />
    <vehicle id="left_85" type="typeWE" route="left" depart="70" />
    <vehicle id="right_86" type="typeWE" route="right" depart="71" />
    <vehicle id="down_87" type="typeNS" route="down" depart="72" color="1,0,0"/>
    <vehicle id="right_88" type="typeWE" route="right" depart="73" />
    <vehicle id="up_89" type="typeNS" route="up" depart="73" color="1,0,0"/>
    <vehicle id="right_90" type="typeWE" route="right" depart="74" />
    <vehicle id="down_91" type="typeNS" route="down" depart="75" color="1,0,0"/>
    <vehicle id="up_92" type="typeNS" route="up" depart="75" color="1,0,0"/>
    <vehicle id="right_93" type="typeWE" route="right" depart="76" />
    <vehicle id="right_94" type="typeWE" route="right" depart="77" />
    <vehicle id="up_95" type="typeNS" route="up" depart="77" color="1,0,0"/>
    <vehicle id="right_96" type="typeWE" route="right" depart="81" />
    <vehicle id="left_97" type="typeWE" route="left" depart="81" />
    <vehicle id="up_98" type="typeNS" route="up" depart="81" color="1,0,0"/>
    <vehicle id="right_99" type="typeWE" route="right" depart="82" />
    <vehicle id="right_100" type="typeWE" route="right" depart="83" />
    <vehicle id="up_101" type="typeNS" route="up" depart="83" color="1,0,0"/>
    <vehicle id="left_102" type="typeWE" route="left" depart="84" />
    <vehicle id="right_103" type="typeWE" route="right" depart="85" />
    <vehicle id="right_104" type="typeWE" route="right" depart="86" />
    <vehicle id="up_105" type="typeNS" route="up" depart="86" color="1,0,0"/>
    <vehicle id="down_106" type="typeNS" route="down" depart="88" color="1,0,0"/>
    <vehicle id="left_107" type="typeWE" route="left" depart="89" />
    <vehicle id="right_108" type="typeWE" route="right" depart="90" />
    <vehicle id="down_109" type="typeNS" route="down" depart="90" color="1,0,0"/>
    <vehicle id="right_110" type="typeWE" route="right" depart="91" />
    <vehicle id="left_111" type="typeWE" route="left" depart="91" />
    <vehicle id="up_112" type="typeNS" route="up" depart="91" color="1,0,0"/>
    <vehicle id="down_113" type="typeNS" route="down" depart="92" color="1,0,0"/>
    <vehicle id="up_114" type="typeNS" route="up" depart="92" color="1,0,0"/>
    <vehicle id="right_115" type="typeWE" route="right" depart="94" />
    <vehicle id="down_116" type="typeNS" route="down" depart="95" color="1,0,0"/>
    <vehicle id="up_117" type="typeNS" route="up" depart="96" color="1,0,0"/>
    <vehicle id="right_118" type="typeWE" route="right" depart="97" />
    <vehicle id="up_119" type="typeNS" route="up" depart="97" color="1,0,0"/>
    <vehicle id="up_120" type="typeNS" route="up" depart="99" color="1,0,0"/>
    <vehicle id="right_121" type="typeWE" route="right" depart="100" />
    <vehicle id="left_122" type="typeWE" route="left" depart="100" />
    <vehicle id="right_123" type="typeWE" route="right" depart="101" />
    <vehicle id="right_124" type="typeWE" route="right" depart="102" />
    <vehicle id="down_125" type="typeNS" route="down" depart="103" color="1,0,0"/>
    <vehicle id="right_126" type="typeWE" route="right" depart="104" />
    <vehicle id="left_127" type="typeWE" route="left" depart="105" />
    <vehicle id="left_128" type="typeWE" route="left" depart="106" />
    <vehicle id="right_129" type="typeWE" route="right" depart="107" />
    <vehicle id="left_130" type="typeWE" route="left" depart="107" />
    <vehicle id="right_131" type="typeWE" route="right" depart="108" />
    <vehicle id="right_132" type="typeWE" route="right" depart="109" />
    <vehicle id="right_133" type="typeWE" route="right" depart="110" />
    <vehicle id="left_134" type="typeWE" route="left" depart="110" />
    <vehicle id="up_135" type="typeNS" route="up" depart="110" color="1,0,0"/>
    <vehicle id="right_136" type="typeWE" route="right" depart="111" />
    <vehicle id="down_137" type="typeNS" route="down" depart="111" color="1,0,0"/>
    <vehicle id="right_138" type="typeWE" route="right" depart="112" />
    <vehicle id="left_139" type="typeWE" route="left" depart="112" />
    <vehicle id="left_140" type="typeWE" route="left" depart="113" />
    <vehicle id="down_141" type="typeNS" route="down" depart="113" color="1,0,0"/>
    <vehicle id="left_142" type="typeWE" route="left" depart="115" />
    <vehicle id="down_143" type="typeNS" route="down" depart="115" color="1,0,0"/>
    <vehicle id="up_144" type="typeNS" route="up" depart="115" color="1,0,0"/>
    <vehicle id="right_145" type="typeWE" route="right" depart="116" />
    <vehicle id="left_146" type="typeWE" route="left" depart="117" />
    <vehicle id="right_147" type="typeWE" route="right" depart="118" />
    <vehicle id="down_148" type="typeNS" route="down" depart="118" color="1,0,0"/>
    <vehicle id="up_149" type="typeNS" route="up" depart="119" color="1,0,0"/>
    <vehicle id="right_150" type="typeWE" route="right" depart="121" />
    <vehicle id="up_151" type="typeNS" route="up" depart="122" color="1,0,0"/>
    <vehicle id="right_152" type="typeWE" route="right" depart="123" />
    <vehicle id="right_153" type="typeWE" route="right" depart="124" />
    <vehicle id="down_154" type="typeNS" route="down" depart="124" color="1,0,0"/>
    <vehicle id="up_155" type="typeNS" route="up" depart="124" color="1,0,0"/>
    <vehicle id="left_156" type="typeWE" route="left" depart="125" />
    <vehicle id="right_157" type="typeWE" route="right" depart="127" />
    <vehicle id="right_158" type="typeWE" route="right" depart="129" />
    <vehicle id="down_159" type="typeNS" route="down" depart="129" color="1,0,0"/>
    <vehicle id="right_160" type="typeWE" route="right" depart="130" />
    <vehicle id="left_161" type="typeWE" route="left" depart="130" />
    <vehicle id="up_162" type="typeNS" route="up" depart="131" color="1,0,0"/>
    <vehicle id="left_163" type="typeWE" route="left" depart="132" />
    <vehicle id="down_164" type="typeNS" route="down" depart="132" color="1,0,0"/>
    <vehicle id="right_165" type="typeWE" route="right" depart="133" />
    <vehicle id="right_166" type="typeWE" route="right" depart="134" />
    <vehicle id="down_167" type="typeNS" route="down" depart="134" color="1,0,0"/>
    <vehicle id="up_168" type="typeNS" route="up" depart="134" color="1,0,0"/>
    <vehicle id="right_169" type="typeWE" route="right" depart="135" />
    <vehicle id="right_170" type="typeWE" route="right" depart="140" />
    <vehicle id="down_171" type="typeNS" route="down" depart="140" color="1,0,0"/>
    <vehicle id="right_172" type="typeWE" route="right" depart="141" />
    <vehicle id="right_173" type="typeWE" route="right" depart="142" />
    <vehicle id="left_174" type="typeWE" route="left" depart="142" />
    <vehicle id="down_175" type="typeNS" route="down" depart="142" color="1,0,0"/>
    <vehicle id="right_176" type="typeWE" route="right" depart="143" />
    <vehicle id="left_177" type="typeWE" route="left" depart="143" />
    <vehicle id="right_178" type="typeWE" route="right" depart="144" />
    <vehicle id="down_179" type="typeNS" route="down" depart="144" color="1,0,0"/>
    <vehicle id="left_180" type="typeWE" route="left" depart="145" />
    <vehicle id="right_181" type="typeWE" route="right" depart="146" />
    <vehicle id="left_182" type="typeWE" route="left" depart="147" />
    <vehicle id="right_183" type="typeWE" route="right" depart="148" />
    <vehicle id="left_184" type="typeWE" route="left" depart="148" />
    <vehicle id="right_185" type="typeWE" route="right" depart="149" />
    <vehicle id="right_186" type="typeWE" route="right" depart="150" />
    <vehicle id="down_187" type="typeNS" route="down" depart="150" color="1,0,0"/>
    <vehicle id="left_188" type="typeWE" route="left" depart="151" />
    <vehicle id="right_189" type="typeWE" route="right" depart="152" />
    <vehicle id="left_190" type="typeWE" route="left" depart="152" />
    <vehicle id="left_191" type="typeWE" route="left" depart="153" />
    <vehicle id="up_192" type="typeNS" route="up" depart="153" color="1,0,0"/>
    <vehicle id="right_193" type="typeWE" route="right" depart="154" />
    <vehicle id="up_194" type="typeNS" route="up" depart="154" color="1,0,0"/>
    <vehicle id="right_195" type="typeWE" route="right" depart="155" />
    <vehicle id="up_196" type="typeNS" route="up" depart="155" color="1,0,0"/>
    <vehicle id="down_197" type="typeNS" route="down" depart="156" color="1,0,0"/>
    <vehicle id="left_198" type="typeWE" route="left" depart="158" />
    <vehicle id="down_199" type="typeNS" route="down" depart="158" color="1,0,0"/>
    <vehicle id="right_200" type="typeWE" route="right" depart="159" />
    <vehicle id="up_201" type="typeNS" route="up" depart="159" color="1,0,0"/>
    <vehicle id="left_202" type="typeWE" route="left" depart="161" />
    <vehicle id="up_203" type="typeNS" route="up" depart="161" color="1,0,0"/>
    <vehicle id="right_204" type="typeWE" route="right" depart="162" />
    <vehicle id="right_205" type="typeWE" route="right" depart="163" />
    <vehicle id="down_206" type="typeNS" route="down" depart="163" color="1,0,0"/>
    <vehicle id="right_207" type="typeWE" route="right" depart="164" />
    <vehicle id="down_208" type="typeNS" route="down" depart="164" color="1,0,0"/>
    <vehicle id="right_209" type="typeWE" route="right" depart="165" />
    <vehicle id="down_210" type="typeNS" route="down" depart="167" color="1,0,0"/>
    <vehicle id="up_211" type="typeNS" route="up" depart="167" color="1,0,0"/>
    <vehicle id="left_212" type="typeWE" route="left" depart="168" />
    <vehicle id="left_213" type="typeWE" route="left" depart="169" />
    <vehicle id="right_214" type="typeWE" route="right" depart="170" />
    <vehicle id="right_215" type="typeWE" route="right" depart="171" />
    <vehicle id="left_216" type="typeWE" route="left" depart="171" />
    <vehicle id="left_217" type="typeWE" route="left" depart="174" />
    <vehicle id="right_218" type="typeWE" route="right" depart="175" />
    <vehicle id="left_219" type="typeWE" route="left" depart="178" />
    <vehicle id="right_220" type="typeWE" route="right" depart="179" />
    <vehicle id="left_221" type="typeWE" route="left" depart="179" />
    <vehicle id="down_222" type="typeNS" route="down" depart="179" color="1,0,0"/>
    <vehicle id="right_223" type="typeWE" route="right" depart="180" />
    <vehicle id="down_224" type="typeNS" route="down" depart="180" color="1,0,0"/>
    <vehicle id="left_225" type="typeWE" route="left" depart="181" />
    <vehicle id="right_226" type="typeWE" route="right" depart="182" />
    <vehicle id="left_227" type="typeWE" route="left" depart="182" />
    <vehicle id="down_228" type="typeNS" route="down" depart="182" color="1,0,0"/>
    <vehicle id="up_229" type="typeNS" route="up" depart="182" color="1,0,0"/>
    <vehicle id="left_230" type="typeWE" route="left" depart="183" />
    <vehicle id="down_231" type="typeNS" route="down" depart="183" color="1,0,0"/>
    <vehicle id="up_232" type="typeNS" route="up" depart="183" color="1,0,0"/>
    <vehicle id="right_233" type="typeWE" route="right" depart="184" />
    <vehicle id="down_234" type="typeNS" route="down" depart="184" color="1,0,0"/>
    <vehicle id="right_235" type="typeWE" route="right" depart="185" />
    <vehicle id="right_236" type="typeWE" route="right" depart="188" />
    <vehicle id="right_237" type="typeWE" route="right" depart="189" />
    <vehicle id="left_238" type="typeWE" route="left" depart="190" />
    <vehicle id="down_239" type="typeNS" route="down" depart="190" color="1,0,0"/>
    <vehicle id="right_240" type="typeWE" route="right" depart="191" />
    <vehicle id="right_241" type="typeWE" route="right" depart="192" />
    <vehicle id="down_242" type="typeNS" route="down" depart="193" color="1,0,0"/>
    <vehicle id="up_243" type="typeNS" route="up" depart="193" color="1,0,0"/>
    <vehicle id="right_244" type="typeWE" route="right" depart="194" />
    <vehicle id="right_245" type="typeWE" route="right" depart="195" />
    <vehicle id="right_246" type="typeWE" route="right" depart="196" />
    <vehicle id="left_247" type="typeWE" route="left" depart="196" />
    <vehicle id="up_248" type="typeNS" route="up" depart="196" color="1,0,0"/>
    <vehicle id="left_249" type="typeWE" route="left" depart="198" />
    <vehicle id="right_250" type="typeWE" route="right" depart="199" />
    <vehicle id="down_251" type="typeNS" route="down" depart="199" color="1,0,0"/>
    <vehicle id="down_252" type="typeNS" route="down" depart="200" color="1,0,0"/>
    <vehicle id="right_253" type="typeWE" route="right" depart="201" />
    <vehicle id="right_254" type="typeWE" route="right" depart="203" />
    <vehicle id="up_255" type="typeNS" route="up" depart="203" color="1,0,0"/>
    <vehicle id="right_256" type="typeWE" route="right" depart="204" />
    <vehicle id="left_257" type="typeWE" route="left" depart="204" />
    <vehicle id="left_258" type="typeWE" route="left" depart="205" />
    <vehicle id="right_259" type="typeWE" route="right" depart="207" />
    <vehicle id="left_260" type="typeWE" route="left" depart="207" />
    <vehicle id="right_261" type="typeWE" route="right" depart="208" />
    <vehicle id="right_262" type="typeWE" route="right" depart="209" />
    <vehicle id="left_263" type="typeWE" route="left" depart="209" />
    <vehicle id="right_264" type="typeWE" route="right" depart="210" />
    <vehicle id="left_265" type="typeWE" route="left" depart="210" />
    <vehicle id="right_266" type="typeWE" route="right" depart="212" />
    <vehicle id="right_267" type="typeWE" route="right" depart="213" />
    <vehicle id="right_268" type="typeWE" route="right" depart="214" />
    <vehicle id="left_269" type="typeWE" route="left" depart="214" />
    <vehicle id="right_270" type="typeWE" route="right" depart="215" />
    <vehicle id="left_271" type="typeWE" route="left" depart="215" />
    <vehicle id="left_272" type="typeWE" route="left" depart="216" />
    <vehicle id="down_273" type="typeNS" route="down" depart="217" color="1,0,0"/>
    <vehicle id="right_274" type="typeWE" route="right" depart="218" />
    <vehicle id="left_275" type="typeWE" route="left" depart="218" />
    <vehicle id="right_276" type="typeWE" route="right" depart="221" />
    <vehicle id="right_277" type="typeWE" route="right" depart="223" />
    <vehicle id="left_278" type="typeWE" route="left" depart="223" />
    <vehicle id="left_279" type="typeWE" route="left" depart="224" />
    <vehicle id="right_280" type="typeWE" route="right" depart="225" />
    <vehicle id="right_281" type="typeWE" route="right" depart="227" />
    <vehicle id="left_282" type="typeWE" route="left" depart="227" />
    <vehicle id="up_283" type="typeNS" route="up" depart="227" color="1,0,0"/>
    <vehicle id="left_284" type="typeWE" route="left" depart="228" />
    <vehicle id="left_285" type="typeWE" route="left" depart="229" />
    <vehicle id="down_286" type="typeNS" route="down" depart="229" color="1,0,0"/>
    <vehicle id="up_287" type="typeNS" route="up" depart="229" color="1,0,0"/>
    <vehicle id="right_288" type="typeWE" route="right" depart="230" />
    <vehicle id="left_289" type="typeWE" route="left" depart="230" />
    <vehicle id="down_290" type="typeNS" route="down" depart="230" color="1,0,0"/>
    <vehicle id="left_291" type="typeWE" route="left" depart="231" />
    <vehicle id="right_292" type="typeWE" route="right" depart="232" />
    <vehicle id="up_293" type="typeNS" route="up" depart="232" color="1,0,0"/>
    <vehicle id="right_294" type="typeWE" route="right" depart="235" />
    <vehicle id="up_295" type="typeNS" route="up" depart="235" color="1,0,0"/>
    <vehicle id="up_296" type="typeNS" route="up" depart="236" color="1,0,0"/>
    <vehicle id="right_297" type="typeWE" route="right" depart="238" />
    <vehicle id="left_298" type="typeWE" route="left" depart="238" />
    <vehicle id="down_299" type="typeNS" route="down" depart="238" color="1,0,0"/>
    <vehicle id="left_300" type="typeWE" route="left" depart="239" />
    <vehicle id="left_301" type="typeWE" route="left" depart="240" />
    <vehicle id="up_302" type="typeNS" route="up" depart="240" color="1,0,0"/>
    <vehicle id="right_303" type="typeWE" route="right" depart="241" />
    <vehicle id="down_304" type="typeNS" route="down" depart="242" color="1,0,0"/>
    <vehicle id="up_305" type="typeNS" route="up" depart="242" color="1,0,0"/>
    <vehicle id="right_306" type="typeWE" route="right" depart="243" />
    <vehicle id="right_307" type="typeWE" route="right" depart="245" />
    <vehicle id="up_308" type="typeNS" route="up" depart="245" color="1,0,0"/>
    <vehicle id="right_309" type="typeWE" route="right" depart="246" />
    <vehicle id="up_310" type="typeNS" route="up" depart="246" color="1,0,0"/>
    <vehicle id="up_311" type="typeNS" route="up" depart="247" color="1,0,0"/>
    <vehicle id="right_312" type="typeWE" route="right" depart="248" />
    <vehicle id="left_313" type="typeWE" route="left" depart="248" />
    <vehicle id="right_314" type="typeWE" route="right" depart="249" />
    <vehicle id="down_315" type="typeNS" route="down" depart="250" color="1,0,0"/>
    <vehicle id="right_316" type="typeWE" route="right" depart="251" />
    <vehicle id="left_317" type="typeWE" route="left" depart="251" />
    <vehicle id="down_318" type="typeNS" route="down" depart="251" color="1,0,0"/>
    <vehicle id="right_319" type="typeWE" route="right" depart="252" />
    <vehicle id="right_320" type="typeWE" route="right" depart="253" />
    <vehicle id="left_321" type="typeWE" route="left" depart="253" />
    <vehicle id="down_322" type="typeNS" route="down" depart="253" color="1,0,0"/>
    <vehicle id="right_323" type="typeWE" route="right" depart="254" />
    <vehicle id="right_324" type="typeWE" route="right" depart="255" />
    <vehicle id="up_325" type="typeNS" route="up" depart="255" color="1,0,0"/>
    <vehicle id="right_326" type="typeWE" route="right" depart="257" />
    <vehicle id="down_327" type="typeNS" route="down" depart="257" color="1,0,0"/>
    <vehicle id="left_328" type="typeWE" route="left" depart="258" />
    <vehicle id="right_329" type="typeWE" route="right" depart="259" />
    <vehicle id="left_330" type="typeWE" route="left" depart="259" />
    <vehicle id="right_331" type="typeWE" route="right" depart="261" />
    <vehicle id="right_332" type="typeWE" route="right" depart="262" />
    <vehicle id="right_333" type="typeWE" route="right" depart="263" />
    <vehicle id="down_334" type="typeNS" route="down" depart="263" color="1,0,0"/>
    <vehicle id="right_335" type="typeWE" route="right" depart="264" />
    <vehicle id="left_336" type="typeWE" route="left" depart="264" />
    <vehicle id="right_337" type="typeWE" route="right" depart="265" />
    <vehicle id="right_338" type="typeWE" route="right" depart="266" />
    <vehicle id="up_339" type="typeNS" route="up" depart="266" color="1,0,0"/>
    <vehicle id="right_340" type="typeWE" route="right" depart="267" />
    <vehicle id="right_341" type="typeWE" route="right" depart="268" />
    <vehicle id="right_342" type="typeWE" route="right" depart="269" />
    <vehicle id="right_343" type="typeWE" route="right" depart="272" />
    <vehicle id="up_344" type="typeNS" route="up" depart="272" color="1,0,0"/>
    <vehicle id="left_345" type="typeWE" route="left" depart="273" />
    <vehicle id="right_346" type="typeWE" route="right" depart="274" />
    <vehicle id="right_347" type="typeWE" route="right" depart="275" />
    <vehicle id="down_348" type="typeNS" route="down" depart="275" color="1,0,0"/>
    <vehicle id="left_349" type="typeWE" route="left" depart="276" />
    <vehicle id="down_350" type="typeNS" route="down" depart="276" color="1,0,0"/>
    <vehicle id="up_351" type="typeNS" route="up" depart="276" color="1,0,0"/>
    <vehicle id="right_352" type="typeWE" route="right" depart="278" />
    <vehicle id="right_353" type="typeWE" route="right" depart="279" />
    <vehicle id="up_354" type="typeNS" route="up" depart="279" color="1,0,0"/>
    <vehicle id="up_355" type="typeNS" route="up" depart="280" color="1,0,0"/>
    <vehicle id="left_356" type="typeWE" route="left" depart="281" />
    <vehicle id="up_357" type="typeNS" route="up" depart="282" color="1,0,0"/>
    <vehicle id="left_358" type="typeWE" route="left" depart="283" />
    <vehicle id="up_359" type="typeNS" route="up" depart="283" color="1,0,0"/>
    <vehicle id="right_360" type="typeWE" route="right" depart="284" />
    <vehicle id="down_361" type="typeNS" route="down" depart="284" color="1,0,0"/>
    <vehicle id="right_362" type="typeWE" route="right" depart="285" />
    <vehicle id="up_363" type="typeNS" route="up" depart="285" color="1,0,0"/>
    <vehicle id="up_364" type="typeNS" route="up" depart="288" color="1,0,0"/>
    <vehicle id="up_365" type="typeNS" route="up" depart="290" color="1,0,0"/>
    <vehicle id="right_366" type="typeWE" route="right" depart="291" />
    <vehicle id="left_367" type="typeWE" route="left" depart="292" />
    <vehicle id="up_368" type="typeNS" route="up" depart="292" color="1,0,0"/>
    <vehicle id="right_369" type="typeWE" route="right" depart="293" />
    <vehicle id="up_370" type="typeNS" route="up" depart="294" color="1,0,0"/>
    <vehicle id="right_371" type="typeWE" route="right" depart="295" />
    <vehicle id="down_372" type="typeNS" route="down" depart="295" color="1,0,0"/>
    <vehicle id="right_373" type="typeWE" route="right" depart="296" />
    <vehicle id="up_374" type="typeNS" route="up" depart="296" color="1,0,0"/>
    <vehicle id="left_375" type="typeWE" route="left" depart="297" />
    <vehicle id="up_376" type="typeNS" route="up" depart="297" color="1,0,0"/>
    <vehicle id="right_377" type="typeWE" route="right" depart="298" />
    <vehicle id="right_378" type="typeWE" route="right" depart="299" />
    <vehicle id="down_379" type="typeNS" route="down" depart="299" color="1,0,0"/>
    <vehicle id="up_380" type="typeNS" route="up" depart="300" color="1,0,0"/>
    <vehicle id="right_381" type="typeWE" route="right" depart="301" />
    <vehicle id="up_382" type="typeNS" route="up" depart="301" color="1,0,0"/>
    <vehicle id="right_383" type="typeWE" route="right" depart="302" />
    <vehicle id="right_384" type="typeWE" route="right" depart="303" />
    <vehicle id="up_385" type="typeNS" route="up" depart="303" color="1,0,0"/>
    <vehicle id="right_386" type="typeWE" route="right" depart="304" />
    <vehicle id="left_387" type="typeWE" route="left" depart="304" />
    <vehicle id="down_388" type="typeNS" route="down" depart="305" color="1,0,0"/>
    <vehicle id="right_389" type="typeWE" route="right" depart="306" />
    <vehicle id="right_390" type="typeWE" route="right" depart="307" />
    <vehicle id="down_391" type="typeNS" route="down" depart="307" color="1,0,0"/>
    <vehicle id="right_392" type="typeWE" route="right" depart="308" />
    <vehicle id="down_393" type="typeNS" route="down" depart="308" color="1,0,0"/>
    <vehicle id="right_394" type="typeWE" route="right" depart="309" />
    <vehicle id="up_395" type="typeNS" route="up" depart="309" color="1,0,0"/>
    <vehicle id="left_396" type="typeWE" route="left" depart="310" />
    <vehicle id="down_397" type="typeNS" route="down" depart="311" color="1,0,0"/>